Paracetamol
     RDKit          3D

 11 11  0  0  1  0  0  0  0  0999 V2000
    5.3347   12.9328   24.6745 C   0  0  0  0  0  0  0  0  0  0  0  0
    7.4361   14.1647   24.6856 C   0  0  0  0  0  0  0  0  0  0  0  0
    4.6972   14.0174   25.3075 C   0  0  0  0  0  0  0  0  0  0  0  0
    6.7971   15.2485   25.3178 C   0  0  0  0  0  0  0  0  0  0  0  0
    6.7135   13.0001   24.3482 C   0  0  0  0  0  0  0  0  0  0  0  0
    5.4267   15.1759   25.6279 C   0  0  0  0  0  0  0  0  0  0  0  0
    6.9693   10.8398   23.1150 C   0  0  0  0  0  0  0  0  0  0  0  0
    8.0090    9.8194   22.6711 C   0  0  0  0  0  0  0  0  0  0  0  0
    7.4372   11.9388   23.7335 N   0  0  0  0  0  0  0  0  0  0  0  0
    5.7867   10.6202   22.8643 O   0  0  0  0  0  0  0  0  0  0  0  0
    4.8050   16.2200   26.2456 O   0  0  0  0  0  0  0  0  0  0  0  0
  1  3  2  0
  1  5  1  0
  2  4  1  0
  2  5  2  0
  3  6  1  0
  4  6  2  0
  5  9  1  0
  6 11  1  0
  7  8  1  0
  7  9  1  0
  7 10  2  0
M  END
>  <E_cosmo>  (1) 
-943302.5647092332

>  <area>  (1) 
1.414519201210894

>  <dipole>  (1) 
6.4172182134486215

>  <HB_acc>  (1) 
3.7106547514724757

>  <G_h2o>  (1) 
9.975507601731147

>  <G_meoh>  (1) 
3.862424492512709

>  <G_octanol>  (1) 
4.078827225718868

>  <G_dmso>  (1) 
8.683793241924192

>  <G_cychex>  (1) 
6.802444253867533

>  <G_acn>  (1) 
8.966804831841534

>  <G_thf>  (1) 
2.7502081979082256

$$$$
Paracetamol
     RDKit          3D

 11 11  0  0  1  0  0  0  0  0999 V2000
    7.3326   14.1647   24.7427 C   0  0  0  0  0  0  0  0  0  0  0  0
    5.2102   12.9915   24.5217 C   0  0  0  0  0  0  0  0  0  0  0  0
    6.6746   15.2326   25.3796 C   0  0  0  0  0  0  0  0  0  0  0  0
    4.5532   14.0623   25.1564 C   0  0  0  0  0  0  0  0  0  0  0  0
    6.6111   13.0355   24.2991 C   0  0  0  0  0  0  0  0  0  0  0  0
    5.2834   15.1857   25.5829 C   0  0  0  0  0  0  0  0  0  0  0  0
    6.9231   10.8978   23.0362 C   0  0  0  0  0  0  0  0  0  0  0  0
    7.9938    9.9616   22.4972 C   0  0  0  0  0  0  0  0  0  0  0  0
    7.3595   12.0058   23.6603 N   0  0  0  0  0  0  0  0  0  0  0  0
    5.7448   10.6023   22.8562 O   0  0  0  0  0  0  0  0  0  0  0  0
    4.6397   16.2216   26.1899 O   0  0  0  0  0  0  0  0  0  0  0  0
  1  3  2  0
  1  5  1  0
  2  4  1  0
  2  5  2  0
  3  6  1  0
  4  6  2  0
  5  9  1  0
  6 11  1  0
  7  8  1  0
  7  9  1  0
  7 10  2  0
M  END
>  <E_cosmo>  (2) 
-943301.7331159362

>  <area>  (2) 
3.220953297759297

>  <dipole>  (2) 
8.687471668858539

>  <HB_acc>  (2) 
2.8819821137507216

>  <G_h2o>  (2) 
1.4090830313854787

>  <G_meoh>  (2) 
9.301810383994397

>  <G_octanol>  (2) 
5.512669425572375

>  <G_dmso>  (2) 
2.388385150933229

>  <G_cychex>  (2) 
7.917343614251106

>  <G_acn>  (2) 
7.0890457098735045

>  <G_thf>  (2) 
5.4420247769300785

$$$$
Paracetamol
     RDKit          3D

 11 11  0  0  1  0  0  0  0  0999 V2000
    4.6181   14.1638   24.8496 C   0  0  0  0  0  0  0  0  0  0  0  0
    5.8557   12.2054   24.0751 C   0  0  0  0  0  0  0  0  0  0  0  0
    5.8157   14.9086   24.8677 C   0  0  0  0  0  0  0  0  0  0  0  0
    7.0445   12.9595   24.0682 C   0  0  0  0  0  0  0  0  0  0  0  0
    4.6346   12.8064   24.4474 C   0  0  0  0  0  0  0  0  0  0  0  0
    7.0279   14.3096   24.4687 C   0  0  0  0  0  0  0  0  0  0  0  0
    2.2196   12.3329   24.1266 C   0  0  0  0  0  0  0  0  0  0  0  0
    1.1694   11.2440   24.3123 C   0  0  0  0  0  0  0  0  0  0  0  0
    3.4746   11.9907   24.4698 N   0  0  0  0  0  0  0  0  0  0  0  0
    1.8864   13.4268   23.6673 O   0  0  0  0  0  0  0  0  0  0  0  0
    8.1843   15.0366   24.4680 O   0  0  0  0  0  0  0  0  0  0  0  0
  1  3  2  0
  1  5  1  0
  2  4  1  0
  2  5  2  0
  3  6  1  0
  4  6  2  0
  5  9  1  0
  6 11  1  0
  7  8  1  0
  7  9  1  0
  7 10  2  0
M  END
>  <E_cosmo>  (3) 
-943305.056679956

>  <area>  (3) 
8.113525257206101

>  <dipole>  (3) 
4.382636274887474

>  <HB_acc>  (3) 
3.4303457660332923

>  <G_h2o>  (3) 
2.1843204170635757

>  <G_meoh>  (3) 
6.478646544673063

>  <G_octanol>  (3) 
4.038761413587641

>  <G_dmso>  (3) 
2.051787338862982

>  <G_cychex>  (3) 
3.5484167288089465

>  <G_acn>  (3) 
7.257856239189499

>  <G_thf>  (3) 
6.780375242232108

$$$$
Paracetamol
     RDKit          3D

 11 11  0  0  1  0  0  0  0  0999 V2000
    5.8612   12.2530   24.0682 C   0  0  0  0  0  0  0  0  0  0  0  0
    4.6162   14.1975   24.8575 C   0  0  0  0  0  0  0  0  0  0  0  0
    7.0477   13.0087   24.0691 C   0  0  0  0  0  0  0  0  0  0  0  0
    5.8122   14.9490   24.8707 C   0  0  0  0  0  0  0  0  0  0  0  0
    4.6379   12.8439   24.4454 C   0  0  0  0  0  0  0  0  0  0  0  0
    7.0282   14.3567   24.4715 C   0  0  0  0  0  0  0  0  0  0  0  0
    2.2303   12.3336   24.1058 C   0  0  0  0  0  0  0  0  0  0  0  0
    1.2066   11.2123   24.2553 C   0  0  0  0  0  0  0  0  0  0  0  0
    3.4882   12.0144   24.4527 N   0  0  0  0  0  0  0  0  0  0  0  0
    1.8765   13.4287   23.6683 O   0  0  0  0  0  0  0  0  0  0  0  0
    8.1832   15.0869   24.4676 O   0  0  0  0  0  0  0  0  0  0  0  0
  1  3  2  0
  1  5  1  0
  2  4  1  0
  2  5  2  0
  3  6  1  0
  4  6  2  0
  5  9  1  0
  6 11  1  0
  7  8  1  0
  7  9  1  0
  7 10  2  0
M  END
>  <E_cosmo>  (4) 
-943300.4223984664

>  <area>  (4) 
6.269914248553357

>  <dipole>  (4) 
5.653244512238096

>  <HB_acc>  (4) 
3.7329043402914763

>  <G_h2o>  (4) 
4.121224317700587

>  <G_meoh>  (4) 
1.878519358121002

>  <G_octanol>  (4) 
7.871690385969228

>  <G_dmso>  (4) 
6.7015493337653815

>  <G_cychex>  (4) 
3.054992579760433

>  <G_acn>  (4) 
5.4460661659110485

>  <G_thf>  (4) 
8.861923786166674

$$$$
Paracetamol
     RDKit          3D

 11 11  0  0  1  0  0  0  0  0999 V2000
    5.1326   14.4188   25.3412 C   0  0  0  0  0  0  0  0  0  0  0  0
    6.2047   12.6257   24.0875 C   0  0  0  0  0  0  0  0  0  0  0  0
    6.3149   15.1855   25.2593 C   0  0  0  0  0  0  0  0  0  0  0  0
    7.3805   13.3918   24.0090 C   0  0  0  0  0  0  0  0  0  0  0  0
    5.0585   13.1428   24.7400 C   0  0  0  0  0  0  0  0  0  0  0  0
    7.4374   14.6761   24.5801 C   0  0  0  0  0  0  0  0  0  0  0  0
    3.3895   11.3567   24.1864 C   0  0  0  0  0  0  0  0  0  0  0  0
    2.0200   10.8303   24.6056 C   0  0  0  0  0  0  0  0  0  0  0  0
    3.8341   12.4291   24.8671 N   0  0  0  0  0  0  0  0  0  0  0  0
    3.9909   10.8007   23.2679 O   0  0  0  0  0  0  0  0  0  0  0  0
    8.5788   15.4202   24.4675 O   0  0  0  0  0  0  0  0  0  0  0  0
  1  3  2  0
  1  5  1  0
  2  4  1  0
  2  5  2  0
  3  6  1  0
  4  6  2  0
  5  9  1  0
  6 11  1  0
  7  8  1  0
  7  9  1  0
  7 10  2  0
M  END
>  <E_cosmo>  (5) 
-943303.365976586

>  <area>  (5) 
6.3004575949665975

>  <dipole>  (5) 
6.8909002586534545

>  <HB_acc>  (5) 
1.122458618377911

>  <G_h2o>  (5) 
1.8389871681910275

>  <G_meoh>  (5) 
4.93949269217242

>  <G_octanol>  (5) 
8.522655290057214

>  <G_dmso>  (5) 
7.378644697683928

>  <G_cychex>  (5) 
3.3707147646942497

>  <G_acn>  (5) 
1.4512490135971412

>  <G_thf>  (5) 
9.87602144448073

$$$$
Paracetamol
     RDKit          3D

 11 11  0  0  1  0  0  0  0  0999 V2000
    5.3704   14.2566   26.0710 C   0  0  0  0  0  0  0  0  0  0  0  0
    6.1910   13.0971   24.0931 C   0  0  0  0  0  0  0  0  0  0  0  0
    6.5837   14.9710   26.1617 C   0  0  0  0  0  0  0  0  0  0  0  0
    7.3971   13.8129   24.1822 C   0  0  0  0  0  0  0  0  0  0  0  0
    5.1592   13.3156   25.0388 C   0  0  0  0  0  0  0  0  0  0  0  0
    7.5965   14.7485   25.2106 C   0  0  0  0  0  0  0  0  0  0  0  0
    3.4515   11.6572   24.2154 C   0  0  0  0  0  0  0  0  0  0  0  0
    2.0493   11.1460   24.5248 C   0  0  0  0  0  0  0  0  0  0  0  0
    3.9086   12.6303   25.0292 N   0  0  0  0  0  0  0  0  0  0  0  0
    4.0639   11.1693   23.2677 O   0  0  0  0  0  0  0  0  0  0  0  0
    8.7821   15.4205   25.2616 O   0  0  0  0  0  0  0  0  0  0  0  0
  1  3  2  0
  1  5  1  0
  2  4  1  0
  2  5  2  0
  3  6  1  0
  4  6  2  0
  5  9  1  0
  6 11  1  0
  7  8  1  0
  7  9  1  0
  7 10  2  0
M  END
>  <E_cosmo>  (6) 
-943300.6713199887

>  <area>  (6) 
6.023756068713215

>  <dipole>  (6) 
8.489847785511746

>  <HB_acc>  (6) 
6.032360522236906

>  <G_h2o>  (6) 
2.98544065278314

>  <G_meoh>  (6) 
8.087446843210625

>  <G_octanol>  (6) 
7.913314460795016

>  <G_dmso>  (6) 
5.1447514427941705

>  <G_cychex>  (6) 
4.118329426505039

>  <G_acn>  (6) 
3.143470607720064

>  <G_thf>  (6) 
3.7023712075342035

$$$$
Paracetamol
     RDKit          3D

 11 11  0  0  1  0  0  0  0  0999 V2000
    6.6244   13.1353   25.9197 C   0  0  0  0  0  0  0  0  0  0  0  0
    5.5438   14.7915   24.5266 C   0  0  0  0  0  0  0  0  0  0  0  0
    7.7889   13.9090   25.9901 C   0  0  0  0  0  0  0  0  0  0  0  0
    6.7197   15.5612   24.5773 C   0  0  0  0  0  0  0  0  0  0  0  0
    5.4954   13.5394   25.1732 C   0  0  0  0  0  0  0  0  0  0  0  0
    7.8509   15.1077   25.2758 C   0  0  0  0  0  0  0  0  0  0  0  0
    3.2011   12.7752   24.4677 C   0  0  0  0  0  0  0  0  0  0  0  0
    2.3204   11.5297   24.4667 C   0  0  0  0  0  0  0  0  0  0  0  0
    4.3924   12.6416   25.0839 N   0  0  0  0  0  0  0  0  0  0  0  0
    2.7677   13.8070   23.9570 O   0  0  0  0  0  0  0  0  0  0  0  0
    9.0066   15.8215   25.2679 O   0  0  0  0  0  0  0  0  0  0  0  0
  1  3  2  0
  1  5  1  0
  2  4  1  0
  2  5  2  0
  3  6  1  0
  4  6  2  0
  5  9  1  0
  6 11  1  0
  7  8  1  0
  7  9  1  0
  7 10  2  0
M  END
>  <E_cosmo>  (7) 
-943303.8183294422

>  <area>  (7) 
3.556419638251534

>  <dipole>  (7) 
1.4482717891258496

>  <HB_acc>  (7) 
2.5201450039230946

>  <G_h2o>  (7) 
4.409480000317622

>  <G_meoh>  (7) 
2.0833265019287364

>  <G_octanol>  (7) 
1.1668415563140235

>  <G_dmso>  (7) 
9.94330718218532

>  <G_cychex>  (7) 
3.3255721461201233

>  <G_acn>  (7) 
3.4588907086413014

>  <G_thf>  (7) 
4.425639284792549

$$$$
Paracetamol
     RDKit          3D

 11 11  0  0  1  0  0  0  0  0999 V2000
    5.4787   13.5311   24.3464 C   0  0  0  0  0  0  0  0  0  0  0  0
    5.0781   15.0834   26.1897 C   0  0  0  0  0  0  0  0  0  0  0  0
    6.8419   13.4849   24.6811 C   0  0  0  0  0  0  0  0  0  0  0  0
    6.4381   15.0205   26.5370 C   0  0  0  0  0  0  0  0  0  0  0  0
    4.5931   14.3404   25.0950 C   0  0  0  0  0  0  0  0  0  0  0  0
    7.3162   14.2352   25.7709 C   0  0  0  0  0  0  0  0  0  0  0  0
    2.4301   13.6839   24.0675 C   0  0  0  0  0  0  0  0  0  0  0  0
    1.0349   14.2200   23.8070 C   0  0  0  0  0  0  0  0  0  0  0  0
    3.2328   14.5086   24.7564 N   0  0  0  0  0  0  0  0  0  0  0  0
    2.7364   12.5708   23.6452 O   0  0  0  0  0  0  0  0  0  0  0  0
    8.6374   14.2202   26.0707 O   0  0  0  0  0  0  0  0  0  0  0  0
  1  3  2  0
  1  5  1  0
  2  4  1  0
  2  5  2  0
  3  6  1  0
  4  6  2  0
  5  9  1  0
  6 11  1  0
  7  8  1  0
  7  9  1  0
  7 10  2  0
M  END
>  <E_cosmo>  (8) 
-943302.9784844198

>  <area>  (8) 
3.488443880396318

>  <dipole>  (8) 
1.4933677835029089

>  <HB_acc>  (8) 
3.555624048585082

>  <G_h2o>  (8) 
9.104808770696387

>  <G_meoh>  (8) 
3.3150770571429615

>  <G_octanol>  (8) 
9.005169776117302

>  <G_dmso>  (8) 
9.235257783642291

>  <G_cychex>  (8) 
8.934988435698541

>  <G_acn>  (8) 
3.584476008261351

>  <G_thf>  (8) 
7.018413333947352

$$$$
Paracetamol
     RDKit          3D

 11 11  0  0  1  0  0  0  0  0999 V2000
    7.3929   12.7985   23.9242 C   0  0  0  0  0  0  0  0  0  0  0  0
    5.1117   12.0154   24.2680 C   0  0  0  0  0  0  0  0  0  0  0  0
    7.7096   11.5934   23.2681 C   0  0  0  0  0  0  0  0  0  0  0  0
    5.4317   10.8092   23.6132 C   0  0  0  0  0  0  0  0  0  0  0  0
    6.0925   13.0254   24.4219 C   0  0  0  0  0  0  0  0  0  0  0  0
    6.7313   10.5962   23.1131 C   0  0  0  0  0  0  0  0  0  0  0  0
    4.6940   14.9011   25.2901 C   0  0  0  0  0  0  0  0  0  0  0  0
    4.7889   16.2083   26.0674 C   0  0  0  0  0  0  0  0  0  0  0  0
    5.8575   14.2551   25.0959 N   0  0  0  0  0  0  0  0  0  0  0  0
    3.6005   14.5283   24.8682 O   0  0  0  0  0  0  0  0  0  0  0  0
    7.0366    9.4274   22.4768 O   0  0  0  0  0  0  0  0  0  0  0  0
  1  3  2  0
  1  5  1  0
  2  4  1  0
  2  5  2  0
  3  6  1  0
  4  6  2  0
  5  9  1  0
  6 11  1  0
  7  8  1  0
  7  9  1  0
  7 10  2  0
M  END
>  <E_cosmo>  (9) 
-943304.6908486302

>  <area>  (9) 
8.222677990922602

>  <dipole>  (9) 
9.973895010192152

>  <HB_acc>  (9) 
3.1447711819718376

>  <G_h2o>  (9) 
5.701678445404866

>  <G_meoh>  (9) 
8.452250151891834

>  <G_octanol>  (9) 
2.9484935935326058

>  <G_dmso>  (9) 
5.658943990471753

>  <G_cychex>  (9) 
6.323576066829906

>  <G_acn>  (9) 
6.30928494253423

>  <G_thf>  (9) 
9.394286338531012

$$$$
Paracetamol
     RDKit          3D

 11 11  0  0  1  0  0  0  0  0999 V2000
    5.7113   13.2876   24.6473 C   0  0  0  0  0  0  0  0  0  0  0  0
    5.3347   15.0130   26.3289 C   0  0  0  0  0  0  0  0  0  0  0  0
    6.9868   13.0443   25.1902 C   0  0  0  0  0  0  0  0  0  0  0  0
    6.6100   14.7671   26.8715 C   0  0  0  0  0  0  0  0  0  0  0  0
    4.8646   14.2574   25.2343 C   0  0  0  0  0  0  0  0  0  0  0  0
    7.4272   13.7668   26.3149 C   0  0  0  0  0  0  0  0  0  0  0  0
    2.7187   13.7540   24.0679 C   0  0  0  0  0  0  0  0  0  0  0  0
    1.3534   14.3578   23.7800 C   0  0  0  0  0  0  0  0  0  0  0  0
    3.5580   14.5423   24.7625 N   0  0  0  0  0  0  0  0  0  0  0  0
    2.9690   12.6192   23.6673 O   0  0  0  0  0  0  0  0  0  0  0  0
    8.6380   13.4747   26.8675 O   0  0  0  0  0  0  0  0  0  0  0  0
  1  3  2  0
  1  5  1  0
  2  4  1  0
  2  5  2  0
  3  6  1  0
  4  6  2  0
  5  9  1  0
  6 11  1  0
  7  8  1  0
  7  9  1  0
  7 10  2  0
M  END
>  <E_cosmo>  (10) 
-943303.4405265804

>  <area>  (10) 
5.696876607986403

>  <dipole>  (10) 
5.932245266051146

>  <HB_acc>  (10) 
3.6014484519672374

>  <G_h2o>  (10) 
4.556222362663595

>  <G_meoh>  (10) 
4.018195663674107

>  <G_octanol>  (10) 
9.696223481085983

>  <G_dmso>  (10) 
7.798475248290369

>  <G_cychex>  (10) 
6.563753006366276

>  <G_acn>  (10) 
1.4839252766580904

>  <G_thf>  (10) 
8.448948671480604

$$$$
Paracetamol
     RDKit          3D

 11 11  0  0  1  0  0  0  0  0999 V2000
    7.3285   12.8361   23.9048 C   0  0  0  0  0  0  0  0  0  0  0  0
    5.0931   11.9899   24.3857 C   0  0  0  0  0  0  0  0  0  0  0  0
    7.6510   11.6221   23.2722 C   0  0  0  0  0  0  0  0  0  0  0  0
    5.4231   10.7695   23.7615 C   0  0  0  0  0  0  0  0  0  0  0  0
    6.0472   13.0334   24.4559 C   0  0  0  0  0  0  0  0  0  0  0  0
    6.7028   10.5885   23.2036 C   0  0  0  0  0  0  0  0  0  0  0  0
    4.6437   14.9026   25.3090 C   0  0  0  0  0  0  0  0  0  0  0  0
    4.7417   16.2157   26.0713 C   0  0  0  0  0  0  0  0  0  0  0  0
    5.8105   14.2704   25.1063 N   0  0  0  0  0  0  0  0  0  0  0  0
    3.5483   14.5093   24.9060 O   0  0  0  0  0  0  0  0  0  0  0  0
    7.0403    9.4206   22.5890 O   0  0  0  0  0  0  0  0  0  0  0  0
  1  3  2  0
  1  5  1  0
  2  4  1  0
  2  5  2  0
  3  6  1  0
  4  6  2  0
  5  9  1  0
  6 11  1  0
  7  8  1  0
  7  9  1  0
  7 10  2  0
M  END
>  <E_cosmo>  (11) 
-943305.8605076032

>  <area>  (11) 
3.2483930599575297

>  <dipole>  (11) 
6.120221897136011

>  <HB_acc>  (11) 
9.614104572401876

>  <G_h2o>  (11) 
4.668919455022797

>  <G_meoh>  (11) 
6.81307989613892

>  <G_octanol>  (11) 
3.220288241263219

>  <G_dmso>  (11) 
5.929733667310557

>  <G_cychex>  (11) 
8.477581850113047

>  <G_acn>  (11) 
5.272623482544285

>  <G_thf>  (11) 
9.98414680584568

$$$$
