Paracetamol|paracetamol|sdf|1|dock4
  -GOLD-   1 72215363D 1   1.00000     0.00000

 20 20  0  0  0  0  0  0  0  0  1 V2000
    7.2677   13.1687   25.7125 C   0  0  0  0  0  0  0  0  0  0  0  0
    5.6796   14.6678   24.6793 C   0  0  0  0  0  0  0  0  0  0  0  0
    7.2384   13.9388   26.8750 C   0  0  0  0  0  0  0  0  0  0  0  0
    5.6503   15.4380   25.8419 C   0  0  0  0  0  0  0  0  0  0  0  0
    6.4883   13.5331   24.6145 C   0  0  0  0  0  0  0  0  0  0  0  0
    6.4298   15.0735   26.9398 C   0  0  0  0  0  0  0  0  0  0  0  0
    7.5610   11.9605   22.9713 C   0  0  0  0  0  0  0  0  0  0  0  0
    7.1960   11.2868   21.6723 C   0  0  0  0  0  0  0  0  0  0  0  0
    6.5175   12.7628   23.4516 N   0  0  0  0  0  0  0  0  0  0  0  0
    8.6587   11.7768   23.4872 O   0  0  0  0  0  0  0  0  0  0  0  0
    6.4012   15.8251   28.0741 O   0  0  0  0  0  0  0  0  0  0  0  0
    7.9015   12.2863   25.6732 H   0  0  0  0  0  0  0  0  0  0  0  0
    5.0681   14.9615   23.8299 H   0  0  0  0  0  0  0  0  0  0  0  0
    7.8478   13.6498   27.7270 H   0  0  0  0  0  0  0  0  0  0  0  0
    5.0184   16.3209   25.8862 H   0  0  0  0  0  0  0  0  0  0  0  0
    6.2378   10.7705   21.7795 H   0  0  0  0  0  0  0  0  0  0  0  0
    7.9646   10.5557   21.4058 H   0  0  0  0  0  0  0  0  0  0  0  0
    7.1239   12.0306   20.8734 H   0  0  0  0  0  0  0  0  0  0  0  0
    5.6709   12.7815   22.8712 H   0  0  0  0  0  0  0  0  0  0  0  0
    7.2475   15.7568   28.5443 H   0  0  0  0  0  0  0  0  0  0  0  0
  1  3  2  0  0  0  0
  1  5  1  0  0  0  0
  2  4  1  0  0  0  0
  2  5  2  0  0  0  0
  3  6  1  0  0  0  0
  4  6  2  0  0  0  0
  5  9  1  0  0  0  0
  6 11  1  0  0  0  0
  7  8  1  0  0  0  0
  7  9  1  0  0  0  0
  7 10  2  0  0  0  0
  1 12  1  0  0  0  0
  2 13  1  0  0  0  0
  3 14  1  0  0  0  0
  4 15  1  0  0  0  0
  8 16  1  0  0  0  0
  8 17  1  0  0  0  0
  8 18  1  0  0  0  0
  9 19  1  0  0  0  0
 11 20  1  0  0  0  0
M  END
> <Gold.Version>
2020.3.0

> <Gold.Id.Protein>
1UYD|1UYD_protein|mol2

> <Gold.Goldscore.Fitness>
28.6240

> <Gold.Goldscore.Internal.Vdw>
-2.2990

> <Gold.Goldscore.Internal.Torsion>
-2.7304

> <Gold.Goldscore.External.Vdw>
19.5318

> <Gold.Goldscore.Internal.HBond>
0.0000

> <Gold.Goldscore.External.HBond>
1.9963

> <Gold.Goldscore.Internal.Correction>
-4.8009

> <Gold.Goldscore.Hbonds>
donor molecule, donor type, donor heavy atom, donor atom, acceptor molecule, acceptor atom, score
      L1  H    11    20       P1   693  1.00

> <Gold.Goldscore.Internal.Vdw.Weighted>
-2.2990

> <Gold.Goldscore.Internal.Torsion.Weighted>
-2.7304

> <Gold.Goldscore.External.Vdw.Weighted>
26.8562

> <Gold.Goldscore.Internal.HBond.Weighted>
0.0000

> <Gold.Goldscore.External.HBond.Weighted>
1.9963

> <Gold.Goldscore.Internal.Correction.Weighted>
-4.8009

> <Gold.Protein.ActiveResidues>
 PHE22   ILE26   GLU47   LEU48   SER50   ASN51   SER52   SER53   ASP54   ALA55  
 LEU56   ILE91   VAL92   ASP93   GLY95   ILE96   GLY97   MET98   ASP102  LEU103 
 ILE104  ASN106  LEU107  GLY108  ILE110  ALA111  LYS112  GLY135  VAL136  GLY137 
 PHE138  TYR139  VAL148  VAL150  THR152  TRP162  PHE170  GLY183  THR184  LYS185 
 VAL186  HOH2008 HOH2027 HOH2036 HOH2060 HOH2063 HOH2065 HOH2068 HOH2071 HOH2083
 HOH2085 HOH2139 HOH2146 HOH2147 HOH2150 HOH2174 HOH2176 HOH2177 HOH2275 HOH2276
 HOH2277

$$$$
