Aspirin|aspirin|sdf|1|dock3
  -GOLD-   1 72215363D 1   1.00000     0.00000

 21 21  0  0  0  0  0  0  0  0  1 V2000
    4.1441   15.5247   25.3336 C   0  0  0  0  0  0  0  0  0  0  0  0
    3.9593   14.5154   24.3888 C   0  0  0  0  0  0  0  0  0  0  0  0
    5.1898   15.4369   26.2526 C   0  0  0  0  0  0  0  0  0  0  0  0
    4.8201   13.4181   24.3629 C   0  0  0  0  0  0  0  0  0  0  0  0
    6.0506   14.3396   26.2268 C   0  0  0  0  0  0  0  0  0  0  0  0
    5.8657   13.3302   25.2820 C   0  0  0  0  0  0  0  0  0  0  0  0
    7.1358   14.2675   27.1952 C   0  0  0  0  0  0  0  0  0  0  0  0
    7.4276   12.1384   24.0459 C   0  0  0  0  0  0  0  0  0  0  0  0
    8.2672   10.8959   24.0747 C   0  0  0  0  0  0  0  0  0  0  0  0
    7.8256   13.2694   27.4217 O   0  0  0  0  0  0  0  0  0  0  0  0
    7.3953   12.9256   23.1093 O   0  0  0  0  0  0  0  0  0  0  0  0
    7.3261   15.4451   27.8495 O   0  0  0  0  0  0  0  0  0  0  0  0
    6.6974   12.2512   25.2395 O   0  0  0  0  0  0  0  0  0  0  0  0
    3.4736   16.3792   25.3534 H   0  0  0  0  0  0  0  0  0  0  0  0
    3.1446   14.5842   23.6740 H   0  0  0  0  0  0  0  0  0  0  0  0
    5.3245   16.2296   26.9841 H   0  0  0  0  0  0  0  0  0  0  0  0
    4.6705   12.6354   23.6242 H   0  0  0  0  0  0  0  0  0  0  0  0
    8.8139   10.8394   25.0194 H   0  0  0  0  0  0  0  0  0  0  0  0
    8.9910   10.9290   23.2552 H   0  0  0  0  0  0  0  0  0  0  0  0
    7.6319   10.0163   23.9434 H   0  0  0  0  0  0  0  0  0  0  0  0
    8.0387   15.3998   28.5221 H   0  0  0  0  0  0  0  0  0  0  0  0
  1  2  1  0  0  0  0
  1  3  2  0  0  0  0
  2  4  2  0  0  0  0
  3  5  1  0  0  0  0
  4  6  1  0  0  0  0
  5  6  2  0  0  0  0
  5  7  1  0  0  0  0
  6 13  1  0  0  0  0
  7 10  2  0  0  0  0
  7 12  1  0  0  0  0
  8  9  1  0  0  0  0
  8 11  2  0  0  0  0
  8 13  1  0  0  0  0
  1 14  1  0  0  0  0
  2 15  1  0  0  0  0
  3 16  1  0  0  0  0
  4 17  1  0  0  0  0
  9 18  1  0  0  0  0
  9 19  1  0  0  0  0
  9 20  1  0  0  0  0
 12 21  1  0  0  0  0
M  END
> <Gold.Version>
2020.3.0

> <Gold.Id.Protein>
1UYD|1UYD_protein|mol2

> <Gold.Goldscore.Fitness>
30.5277

> <Gold.Goldscore.Internal.Vdw>
-0.7240

> <Gold.Goldscore.Internal.Torsion>
-3.0436

> <Gold.Goldscore.External.Vdw>
20.8913

> <Gold.Goldscore.Internal.HBond>
0.0000

> <Gold.Goldscore.External.HBond>
2.0000

> <Gold.Goldscore.Internal.Correction>
-3.5696

> <Gold.Goldscore.Hbonds>
donor molecule, donor type, donor heavy atom, donor atom, acceptor molecule, acceptor atom, score
      L1  H    12    21       P1   693  1.00

> <Gold.Goldscore.Internal.Vdw.Weighted>
-0.7240

> <Gold.Goldscore.Internal.Torsion.Weighted>
-3.0436

> <Gold.Goldscore.External.Vdw.Weighted>
28.7256

> <Gold.Goldscore.Internal.HBond.Weighted>
0.0000

> <Gold.Goldscore.External.HBond.Weighted>
2.0000

> <Gold.Goldscore.Internal.Correction.Weighted>
-3.5696

> <Gold.Protein.ActiveResidues>
 PHE22   ILE26   GLU47   LEU48   SER50   ASN51   SER52   SER53   ASP54   ALA55  
 LEU56   ILE91   VAL92   ASP93   GLY95   ILE96   GLY97   MET98   ASP102  LEU103 
 ILE104  ASN106  LEU107  GLY108  ILE110  ALA111  LYS112  GLY135  VAL136  GLY137 
 PHE138  TYR139  VAL148  VAL150  THR152  TRP162  PHE170  GLY183  THR184  LYS185 
 VAL186  HOH2008 HOH2027 HOH2036 HOH2060 HOH2063 HOH2065 HOH2068 HOH2071 HOH2083
 HOH2085 HOH2139 HOH2146 HOH2147 HOH2150 HOH2174 HOH2176 HOH2177 HOH2275 HOH2276
 HOH2277

$$$$
