Paracetamol|paracetamol|sdf|1|dock3
  -GOLD-   1 72215363D 1   1.00000     0.00000

 20 20  0  0  0  0  0  0  0  0  1 V2000
    5.7962   14.8476   24.9461 C   0  0  0  0  0  0  0  0  0  0  0  0
    7.2442   13.2211   25.9923 C   0  0  0  0  0  0  0  0  0  0  0  0
    5.8104   15.6111   26.1132 C   0  0  0  0  0  0  0  0  0  0  0  0
    7.2585   13.9847   27.1596 C   0  0  0  0  0  0  0  0  0  0  0  0
    6.5130   13.6525   24.8856 C   0  0  0  0  0  0  0  0  0  0  0  0
    6.5416   15.1797   27.2200 C   0  0  0  0  0  0  0  0  0  0  0  0
    7.4582   11.9687   23.2745 C   0  0  0  0  0  0  0  0  0  0  0  0
    7.0703   11.3485   21.9556 C   0  0  0  0  0  0  0  0  0  0  0  0
    6.4988   12.8887   23.7181 N   0  0  0  0  0  0  0  0  0  0  0  0
    8.5032   11.6527   23.8339 O   0  0  0  0  0  0  0  0  0  0  0  0
    6.5556   15.9247   28.3590 O   0  0  0  0  0  0  0  0  0  0  0  0
    5.2230   15.1935   24.0895 H   0  0  0  0  0  0  0  0  0  0  0  0
    7.8065   12.2914   25.9567 H   0  0  0  0  0  0  0  0  0  0  0  0
    5.2501   16.5412   26.1542 H   0  0  0  0  0  0  0  0  0  0  0  0
    7.8299   13.6433   28.0185 H   0  0  0  0  0  0  0  0  0  0  0  0
    6.0976   10.8576   22.0492 H   0  0  0  0  0  0  0  0  0  0  0  0
    7.8163   10.6041   21.6630 H   0  0  0  0  0  0  0  0  0  0  0  0
    7.0184   12.1197   21.1814 H   0  0  0  0  0  0  0  0  0  0  0  0
    5.6858   13.0110   23.1033 H   0  0  0  0  0  0  0  0  0  0  0  0
    7.4122   15.8384   28.8069 H   0  0  0  0  0  0  0  0  0  0  0  0
  1  3  2  0  0  0  0
  1  5  1  0  0  0  0
  2  4  1  0  0  0  0
  2  5  2  0  0  0  0
  3  6  1  0  0  0  0
  4  6  2  0  0  0  0
  5  9  1  0  0  0  0
  6 11  1  0  0  0  0
  7  8  1  0  0  0  0
  7  9  1  0  0  0  0
  7 10  2  0  0  0  0
  1 12  1  0  0  0  0
  2 13  1  0  0  0  0
  3 14  1  0  0  0  0
  4 15  1  0  0  0  0
  8 16  1  0  0  0  0
  8 17  1  0  0  0  0
  8 18  1  0  0  0  0
  9 19  1  0  0  0  0
 11 20  1  0  0  0  0
M  END
> <Gold.Version>
2020.3.0

> <Gold.Id.Protein>
1UYD|1UYD_protein|mol2

> <Gold.Goldscore.Fitness>
28.7121

> <Gold.Goldscore.Internal.Vdw>
-2.3583

> <Gold.Goldscore.Internal.Torsion>
-2.6382

> <Gold.Goldscore.External.Vdw>
19.5690

> <Gold.Goldscore.Internal.HBond>
0.0000

> <Gold.Goldscore.External.HBond>
2.0000

> <Gold.Goldscore.Internal.Correction>
-4.8013

> <Gold.Goldscore.Hbonds>
donor molecule, donor type, donor heavy atom, donor atom, acceptor molecule, acceptor atom, score
      L1  H    11    20       P1   693  1.00

> <Gold.Goldscore.Internal.Vdw.Weighted>
-2.3583

> <Gold.Goldscore.Internal.Torsion.Weighted>
-2.6382

> <Gold.Goldscore.External.Vdw.Weighted>
26.9073

> <Gold.Goldscore.Internal.HBond.Weighted>
0.0000

> <Gold.Goldscore.External.HBond.Weighted>
2.0000

> <Gold.Goldscore.Internal.Correction.Weighted>
-4.8013

> <Gold.Protein.ActiveResidues>
 PHE22   ILE26   GLU47   LEU48   SER50   ASN51   SER52   SER53   ASP54   ALA55  
 LEU56   ILE91   VAL92   ASP93   GLY95   ILE96   GLY97   MET98   ASP102  LEU103 
 ILE104  ASN106  LEU107  GLY108  ILE110  ALA111  LYS112  GLY135  VAL136  GLY137 
 PHE138  TYR139  VAL148  VAL150  THR152  TRP162  PHE170  GLY183  THR184  LYS185 
 VAL186  HOH2008 HOH2027 HOH2036 HOH2060 HOH2063 HOH2065 HOH2068 HOH2071 HOH2083
 HOH2085 HOH2139 HOH2146 HOH2147 HOH2150 HOH2174 HOH2176 HOH2177 HOH2275 HOH2276
 HOH2277

$$$$
