Paracetamol|paracetamol|sdf|1|dock5
  -GOLD-   1 72215363D 1   1.00000     0.00000

 20 20  0  0  0  0  0  0  0  0  1 V2000
    7.4255   13.1557   25.7313 C   0  0  0  0  0  0  0  0  0  0  0  0
    5.9251   14.7655   24.7341 C   0  0  0  0  0  0  0  0  0  0  0  0
    7.4373   13.8980   26.9120 C   0  0  0  0  0  0  0  0  0  0  0  0
    5.9369   15.5079   25.9150 C   0  0  0  0  0  0  0  0  0  0  0  0
    6.6695   13.5893   24.6422 C   0  0  0  0  0  0  0  0  0  0  0  0
    6.6930   15.0742   27.0040 C   0  0  0  0  0  0  0  0  0  0  0  0
    7.6550   11.9982   22.9626 C   0  0  0  0  0  0  0  0  0  0  0  0
    7.2553   11.3778   21.6474 C   0  0  0  0  0  0  0  0  0  0  0  0
    6.6576   12.8469   23.4611 N   0  0  0  0  0  0  0  0  0  0  0  0
    8.7391   11.7399   23.4751 O   0  0  0  0  0  0  0  0  0  0  0  0
    6.7045   15.7986   28.1561 O   0  0  0  0  0  0  0  0  0  0  0  0
    8.0093   12.2405   25.6709 H   0  0  0  0  0  0  0  0  0  0  0  0
    5.3323   15.1131   23.8918 H   0  0  0  0  0  0  0  0  0  0  0  0
    8.0282   13.5550   27.7570 H   0  0  0  0  0  0  0  0  0  0  0  0
    5.3551   16.4233   25.9804 H   0  0  0  0  0  0  0  0  0  0  0  0
    6.2929   10.8696   21.7550 H   0  0  0  0  0  0  0  0  0  0  0  0
    8.0089   10.6478   21.3383 H   0  0  0  0  0  0  0  0  0  0  0  0
    7.1769   12.1517   20.8781 H   0  0  0  0  0  0  0  0  0  0  0  0
    5.8149   12.9277   22.8804 H   0  0  0  0  0  0  0  0  0  0  0  0
    7.5562   15.6955   28.6098 H   0  0  0  0  0  0  0  0  0  0  0  0
  1  3  2  0  0  0  0
  1  5  1  0  0  0  0
  2  4  1  0  0  0  0
  2  5  2  0  0  0  0
  3  6  1  0  0  0  0
  4  6  2  0  0  0  0
  5  9  1  0  0  0  0
  6 11  1  0  0  0  0
  7  8  1  0  0  0  0
  7  9  1  0  0  0  0
  7 10  2  0  0  0  0
  1 12  1  0  0  0  0
  2 13  1  0  0  0  0
  3 14  1  0  0  0  0
  4 15  1  0  0  0  0
  8 16  1  0  0  0  0
  8 17  1  0  0  0  0
  8 18  1  0  0  0  0
  9 19  1  0  0  0  0
 11 20  1  0  0  0  0
M  END
> <Gold.Version>
2020.3.0

> <Gold.Id.Protein>
1UYD|1UYD_protein|mol2

> <Gold.Goldscore.Fitness>
28.9511

> <Gold.Goldscore.Internal.Vdw>
-2.1563

> <Gold.Goldscore.Internal.Torsion>
-2.7901

> <Gold.Goldscore.External.Vdw>
19.7066

> <Gold.Goldscore.Internal.HBond>
0.0000

> <Gold.Goldscore.External.HBond>
2.0000

> <Gold.Goldscore.Internal.Correction>
-4.8009

> <Gold.Goldscore.Hbonds>
donor molecule, donor type, donor heavy atom, donor atom, acceptor molecule, acceptor atom, score
      L1  H    11    20       P1   693  1.00

> <Gold.Goldscore.Internal.Vdw.Weighted>
-2.1563

> <Gold.Goldscore.Internal.Torsion.Weighted>
-2.7901

> <Gold.Goldscore.External.Vdw.Weighted>
27.0965

> <Gold.Goldscore.Internal.HBond.Weighted>
0.0000

> <Gold.Goldscore.External.HBond.Weighted>
2.0000

> <Gold.Goldscore.Internal.Correction.Weighted>
-4.8009

> <Gold.Protein.ActiveResidues>
 PHE22   ILE26   GLU47   LEU48   SER50   ASN51   SER52   SER53   ASP54   ALA55  
 LEU56   ILE91   VAL92   ASP93   GLY95   ILE96   GLY97   MET98   ASP102  LEU103 
 ILE104  ASN106  LEU107  GLY108  ILE110  ALA111  LYS112  GLY135  VAL136  GLY137 
 PHE138  TYR139  VAL148  VAL150  THR152  TRP162  PHE170  GLY183  THR184  LYS185 
 VAL186  HOH2008 HOH2027 HOH2036 HOH2060 HOH2063 HOH2065 HOH2068 HOH2071 HOH2083
 HOH2085 HOH2139 HOH2146 HOH2147 HOH2150 HOH2174 HOH2176 HOH2177 HOH2275 HOH2276
 HOH2277

$$$$
