Paracetamol|paracetamol|sdf|1|dock2
  -GOLD-   1 72215363D 1   1.00000     0.00000

 20 20  0  0  0  0  0  0  0  0  1 V2000
    5.9989   14.6451   24.7536 C   0  0  0  0  0  0  0  0  0  0  0  0
    7.3218   12.9067   25.7855 C   0  0  0  0  0  0  0  0  0  0  0  0
    6.0011   15.3583   25.9522 C   0  0  0  0  0  0  0  0  0  0  0  0
    7.3240   13.6200   26.9843 C   0  0  0  0  0  0  0  0  0  0  0  0
    6.6592   13.4192   24.6702 C   0  0  0  0  0  0  0  0  0  0  0  0
    6.6636   14.8458   27.0676 C   0  0  0  0  0  0  0  0  0  0  0  0
    7.6382   11.8327   22.9823 C   0  0  0  0  0  0  0  0  0  0  0  0
    7.2573   11.2586   21.6407 C   0  0  0  0  0  0  0  0  0  0  0  0
    6.6571   12.7056   23.4713 N   0  0  0  0  0  0  0  0  0  0  0  0
    8.6958   11.5226   23.5208 O   0  0  0  0  0  0  0  0  0  0  0  0
    6.6658   15.5417   28.2373 O   0  0  0  0  0  0  0  0  0  0  0  0
    5.4794   15.0541   23.8906 H   0  0  0  0  0  0  0  0  0  0  0  0
    7.8397   11.9524   25.7323 H   0  0  0  0  0  0  0  0  0  0  0  0
    5.4849   16.3127   26.0110 H   0  0  0  0  0  0  0  0  0  0  0  0
    7.8418   13.2155   27.8497 H   0  0  0  0  0  0  0  0  0  0  0  0
    6.3108   10.7173   21.7249 H   0  0  0  0  0  0  0  0  0  0  0  0
    8.0327   10.5661   21.3009 H   0  0  0  0  0  0  0  0  0  0  0  0
    7.1554   12.0627   20.9060 H   0  0  0  0  0  0  0  0  0  0  0  0
    5.8363   12.8312   22.8676 H   0  0  0  0  0  0  0  0  0  0  0  0
    7.5274   15.4590   28.6763 H   0  0  0  0  0  0  0  0  0  0  0  0
  1  3  2  0  0  0  0
  1  5  1  0  0  0  0
  2  4  1  0  0  0  0
  2  5  2  0  0  0  0
  3  6  1  0  0  0  0
  4  6  2  0  0  0  0
  5  9  1  0  0  0  0
  6 11  1  0  0  0  0
  7  8  1  0  0  0  0
  7  9  1  0  0  0  0
  7 10  2  0  0  0  0
  1 12  1  0  0  0  0
  2 13  1  0  0  0  0
  3 14  1  0  0  0  0
  4 15  1  0  0  0  0
  8 16  1  0  0  0  0
  8 17  1  0  0  0  0
  8 18  1  0  0  0  0
  9 19  1  0  0  0  0
 11 20  1  0  0  0  0
M  END
> <Gold.Version>
2020.3.0

> <Gold.Id.Protein>
1UYD|1UYD_protein|mol2

> <Gold.Goldscore.Fitness>
28.8300

> <Gold.Goldscore.Internal.Vdw>
-1.5098

> <Gold.Goldscore.Internal.Torsion>
-3.3111

> <Gold.Goldscore.External.Vdw>
19.5269

> <Gold.Goldscore.Internal.HBond>
0.0000

> <Gold.Goldscore.External.HBond>
2.0000

> <Gold.Goldscore.Internal.Correction>
-4.8013

> <Gold.Goldscore.Hbonds>
donor molecule, donor type, donor heavy atom, donor atom, acceptor molecule, acceptor atom, score
      L1  H    11    20       P1   693  1.00

> <Gold.Goldscore.Internal.Vdw.Weighted>
-1.5098

> <Gold.Goldscore.Internal.Torsion.Weighted>
-3.3111

> <Gold.Goldscore.External.Vdw.Weighted>
26.8495

> <Gold.Goldscore.Internal.HBond.Weighted>
0.0000

> <Gold.Goldscore.External.HBond.Weighted>
2.0000

> <Gold.Goldscore.Internal.Correction.Weighted>
-4.8013

> <Gold.Protein.ActiveResidues>
 PHE22   ILE26   GLU47   LEU48   SER50   ASN51   SER52   SER53   ASP54   ALA55  
 LEU56   ILE91   VAL92   ASP93   GLY95   ILE96   GLY97   MET98   ASP102  LEU103 
 ILE104  ASN106  LEU107  GLY108  ILE110  ALA111  LYS112  GLY135  VAL136  GLY137 
 PHE138  TYR139  VAL148  VAL150  THR152  TRP162  PHE170  GLY183  THR184  LYS185 
 VAL186  HOH2008 HOH2027 HOH2036 HOH2060 HOH2063 HOH2065 HOH2068 HOH2071 HOH2083
 HOH2085 HOH2139 HOH2146 HOH2147 HOH2150 HOH2174 HOH2176 HOH2177 HOH2275 HOH2276
 HOH2277

$$$$
