0:0:0
     RDKit          3D

 19 19  0  0  0  0  0  0  0  0999 V2000
    1.9524   -0.9976   -1.5113 N   0  0  0  0  0  0  0  0  0  0  0  0
    1.8840   -1.0316   -0.1370 C   0  0  0  0  0  0  0  0  0  0  0  0
    0.8405   -0.4193    0.5484 C   0  0  0  0  0  0  0  0  0  0  0  0
    0.7781   -0.4283    1.9303 C   0  0  0  0  0  0  0  0  0  0  0  0
    1.7782   -1.0689    2.6440 C   0  0  0  0  0  0  0  0  0  0  0  0
    2.8528   -1.6638    1.9824 C   0  0  0  0  0  0  0  0  0  0  0  0
    2.9321   -1.6392    0.6006 C   0  0  0  0  0  0  0  0  0  0  0  0
    3.9712   -2.2586   -0.0739 N   0  0  0  0  0  0  0  0  0  0  0  0
    1.7532   -1.1312    4.1288 C   0  0  0  0  0  0  0  0  0  0  0  0
    0.6884   -0.5330    4.6923 F   0  0  0  0  0  0  0  0  0  0  0  0
    1.7510   -2.4003    4.6124 F   0  0  0  0  0  0  0  0  0  0  0  0
    2.8383   -0.5537    4.7080 F   0  0  0  0  0  0  0  0  0  0  0  0
    1.1067   -0.7018   -1.9727 H   0  0  0  0  0  0  0  0  0  0  0  0
    2.4028   -1.7879   -1.9456 H   0  0  0  0  0  0  0  0  0  0  0  0
    0.0562    0.0639   -0.0135 H   0  0  0  0  0  0  0  0  0  0  0  0
   -0.0427    0.0434    2.4463 H   0  0  0  0  0  0  0  0  0  0  0  0
    3.6304   -2.1424    2.5598 H   0  0  0  0  0  0  0  0  0  0  0  0
    4.7389   -2.5348    0.5191 H   0  0  0  0  0  0  0  0  0  0  0  0
    4.2742   -1.7814   -0.9099 H   0  0  0  0  0  0  0  0  0  0  0  0
  1  2  1  0
  2  3  2  0
  3  4  1  0
  4  5  2  0
  5  6  1  0
  6  7  2  0
  7  8  1  0
  5  9  1  0
  9 10  1  0
  9 11  1  0
  9 12  1  0
  2  7  1  0
  1 13  1  0
  1 14  1  0
  3 15  1  0
  4 16  1  0
  6 17  1  0
  8 18  1  0
  8 19  1  0
M  END
>  <conformer_energy>  (5)
    -38.617834532362

>  <formal_charge>  (5)
0

>  <gradient norm / Eh/a0>  (5)
      0.000045874052

>  <E_cosmo>  (5)
-426554.5988

>  <volume>  (5)
184.3447

>  <area>  (5)
183.6232

>  <dipole>  (5)
7.0734

>  <HB_acc>  (5)
1.5719

>  <HB_don>  (5)
3.2283

>  <sigma1>  (5)
0.0000

>  <sigma2>  (5)
8.84E+01

>  <sigma3>  (5)
-3.33E+01

>  <sigma4>  (5)
1.17E+02

>  <sigma5>  (5)
-5.57E+01

>  <sigma6>  (5)
2.20E+02

>  <Gsolv_h2o>  (5)
-8.97315

>  <G_h2o>  (5)
-426549.48719

>  <Gsolv_meoh>  (5)
-11.81911

>  <G_meoh>  (5)
-426552.84912

>  <Gsolv_octanol>  (5)
-9.87034

>  <G_octanol>  (5)
-426551.67415

>  <Gsolv_dmso>  (5)
-13.89434

>  <G_dmso>  (5)
-426555.19792

>  <Gsolv_cychex>  (5)
-7.10149

>  <G_cychex>  (5)
-426548.68689

>  <Gsolv_chcl3>  (5)
-9.16392

>  <G_chcl3>  (5)
-426550.56401

>  <Gsolv_propanone>  (5)
-12.08180

>  <G_propanone>  (5)
-426553.41017

>  <Gsolv_acn>  (5)
-11.76444

>  <G_acn>  (5)
-426552.92995

>  <Gsolv_thf>  (5)
-11.62412

>  <G_thf>  (5)
-426553.01724

>  <compound_name>  (5)
another_mol

>  <index_string>  (5)
0:0:0

$$$$
